data_none

_audit_creation_method generated by ABACUS

_cell_length_a 20.0764
_cell_length_b 20.0764
_cell_length_c 30
_cell_angle_alpha 90
_cell_angle_beta 90
_cell_angle_gamma 120

loop_
_atom_site_label
_atom_site_fract_x
_atom_site_fract_y
_atom_site_fract_z
Ti 0.583333 0.541667 0.544675
N 0.536927 0.588073 0.513694
N 0.041667 0.083333 0.5
N 0.166565 0.0831961 0.49992
N 0.291541 0.0830327 0.499675
N 0.416524 0.0830087 0.499691
N 0.541688 0.0831731 0.500173
N 0.66682 0.0833881 0.500289
N 0.791767 0.0833744 0.500195
N 0.916659 0.0833793 0.500182
N 0.0416206 0.208341 0.500182
N 0.166549 0.208309 0.499533
N 0.29103 0.207551 0.498092
N 0.416253 0.207474 0.497557
N 0.541542 0.207536 0.498092
N 0.666772 0.208292 0.499591
N 0.791777 0.208365 0.500182
N 0.916651 0.208349 0.500123
N 0.0416255 0.333233 0.500195
N 0.166561 0.33329 0.499742
N 0.291466 0.333196 0.49885
N 0.41522 0.33152 0.497975
N 0.541371 0.331522 0.497967
N 0.66679 0.333191 0.498837
N 0.791762 0.333238 0.499726
N 0.916635 0.333223 0.500182
N 0.0416118 0.45818 0.500289
N 0.166603 0.458246 0.499589
N 0.291473 0.458215 0.498831
N 0.416663 0.458302 0.503188
N 0.536945 0.448831 0.513681
N 0.666704 0.458296 0.50319
N 0.791809 0.45821 0.498837
N 0.916708 0.458228 0.499591
N 0.041827 0.583312 0.500173
N 0.166536 0.583306 0.500174
N 0.29105 0.583442 0.498093
N 0.415221 0.583631 0.497966
N 0.676169 0.588056 0.513682
N 0.793479 0.583629 0.497967
N 0.917464 0.583458 0.498092
N 0.0419915 0.708476 0.499691
N 0.166713 0.708368 0.500528
N 0.29154 0.708458 0.499682
N 0.416273 0.708727 0.497548
N 0.541369 0.709779 0.497966
N 0.666698 0.708337 0.503188
N 0.79348 0.70978 0.497975
N 0.917526 0.708747 0.497557
N 0.0419675 0.833459 0.499675
N 0.166816 0.833409 0.500306
N 0.291624 0.833376 0.500292
N 0.416542 0.83346 0.499682
N 0.541558 0.83395 0.498093
N 0.666785 0.833527 0.498831
N 0.791804 0.833534 0.49885
N 0.91745 0.83397 0.498092
N 0.0418039 0.958435 0.49992
N 0.166696 0.958304 0.500466
N 0.291591 0.958184 0.500306
N 0.416632 0.958287 0.500528
N 0.541694 0.958464 0.500174
N 0.666753 0.958397 0.499589
N 0.79171 0.958439 0.499742
N 0.916691 0.958451 0.499533
B 0.083333 0.041667 0.5
B 0.208265 0.0415621 0.500108
B 0.333236 0.0414344 0.499964
B 0.458336 0.0415386 0.500218
B 0.583503 0.0417269 0.500329
B 0.708431 0.0416894 0.5001
B 0.833375 0.0416812 0.500089
B 0.958354 0.0417456 0.499984
B 0.0832544 0.166646 0.499984
B 0.207957 0.166398 0.499201
B 0.332961 0.166148 0.498352
B 0.458206 0.166132 0.498358
B 0.583425 0.166353 0.499304
B 0.708476 0.166709 0.500097
B 0.833397 0.166693 0.50018
B 0.958288 0.166712 0.500179
B 0.0833186 0.291625 0.500089
B 0.208199 0.291659 0.499298
B 0.332371 0.290658 0.497832
B 0.45781 0.290558 0.497622
B 0.583355 0.290648 0.497819
B 0.708487 0.291638 0.499296
B 0.833376 0.291624 0.500073
B 0.958307 0.291603 0.50018
B 0.0833104 0.416569 0.5001
B 0.208239 0.416547 0.499298
B 0.333303 0.416626 0.49976
B 0.456403 0.413862 0.504467
B 0.582534 0.413875 0.504467
B 0.708385 0.416615 0.49976
B 0.833362 0.416513 0.499296
B 0.958291 0.416523 0.500096
B 0.0832731 0.541497 0.500329
B 0.207982 0.54157 0.499304
B 0.332371 0.541643 0.497817
B 0.456397 0.542471 0.50447
B 0.711126 0.542466 0.504467
B 0.834352 0.541646 0.497819
B 0.958647 0.541575 0.499303
B 0.0834614 0.666664 0.500218
B 0.208259 0.666659 0.500216
B 0.332983 0.666782 0.498354
B 0.457816 0.667184 0.497618
B 0.582529 0.668603 0.50447
B 0.711138 0.668597 0.504467
B 0.834442 0.667191 0.497622
B 0.958868 0.666794 0.498358
B 0.0835656 0.791764 0.499964
B 0.208377 0.791718 0.500363
B 0.333257 0.791743 0.499953
B 0.458218 0.792017 0.498354
B 0.583357 0.792629 0.497817
B 0.708374 0.791697 0.49976
B 0.834343 0.792629 0.497832
B 0.958852 0.792039 0.498352
B 0.0834379 0.916735 0.500108
B 0.208361 0.916639 0.500355
B 0.333282 0.916623 0.500363
B 0.458341 0.916742 0.500216
B 0.58343 0.917018 0.499304
B 0.708453 0.916761 0.499298
B 0.833341 0.916801 0.499298
B 0.958602 0.917043 0.499201
