data_none

_audit_creation_method generated by ABACUS

_cell_length_a 20.0764
_cell_length_b 20.0764
_cell_length_c 30
_cell_angle_alpha 90
_cell_angle_beta 90
_cell_angle_gamma 120

loop_
_atom_site_label
_atom_site_fract_x
_atom_site_fract_y
_atom_site_fract_z
Ti 0.585865 0.541882 0.545831
N 0.529903 0.588696 0.511415
N 0.0531717 0.073637 0.500141
N 0.159883 0.0975642 0.498399
N 0.280461 0.0681599 0.501216
N 0.41609 0.0831501 0.498308
N 0.552528 0.0805913 0.506468
N 0.657993 0.081185 0.508996
N 0.779439 0.0893696 0.50236
N 0.923418 0.0992109 0.49215
N 0.0341155 0.197595 0.498284
N 0.167469 0.213643 0.502587
N 0.295765 0.209235 0.495701
N 0.409814 0.198801 0.495273
N 0.546425 0.214326 0.504135
N 0.674119 0.217399 0.507079
N 0.789955 0.1981 0.500486
N 0.921859 0.207022 0.500883
N 0.0449709 0.339344 0.50096
N 0.154848 0.328404 0.500584
N 0.293683 0.33893 0.501456
N 0.40693 0.325169 0.496412
N 0.548383 0.331491 0.495029
N 0.658916 0.329691 0.501016
N 0.786102 0.324747 0.490581
N 0.916958 0.339828 0.494339
N 0.0385864 0.45506 0.501244
N 0.169916 0.444008 0.499375
N 0.289424 0.4678 0.500792
N 0.421774 0.459417 0.505676
N 0.535466 0.446716 0.514079
N 0.676704 0.456197 0.499073
N 0.787331 0.460202 0.494605
N 0.927283 0.46801 0.495738
N 0.044439 0.592831 0.502893
N 0.161013 0.581301 0.503426
N 0.286769 0.570638 0.497327
N 0.420212 0.5804 0.494129
N 0.664351 0.584083 0.516924
N 0.796378 0.58167 0.498465
N 0.929751 0.591897 0.503122
N 0.0286598 0.700383 0.497641
N 0.168389 0.711863 0.501326
N 0.302282 0.72444 0.49887
N 0.409726 0.721153 0.494714
N 0.549247 0.70889 0.498626
N 0.654651 0.696809 0.506207
N 0.796291 0.713364 0.496255
N 0.913093 0.709695 0.49858
N 0.0344098 0.816642 0.494037
N 0.164399 0.83771 0.503561
N 0.298627 0.832986 0.502358
N 0.416594 0.826114 0.500842
N 0.540051 0.836337 0.499705
N 0.671972 0.829237 0.500939
N 0.803986 0.845611 0.491297
N 0.917777 0.829107 0.493341
N 0.0403426 0.971449 0.497749
N 0.170175 0.961389 0.498628
N 0.298891 0.957317 0.504938
N 0.410141 0.961424 0.500162
N 0.54703 0.964057 0.504225
N 0.653948 0.951526 0.503553
N 0.795368 0.944878 0.496114
N 0.913242 0.964089 0.494927
B 0.0900054 0.039987 0.501123
B 0.202435 0.0493505 0.501936
B 0.339292 0.0388618 0.491363
B 0.464174 0.0484806 0.50692
B 0.586659 0.0318285 0.492391
B 0.703048 0.0544654 0.491726
B 0.842977 0.0398127 0.509635
B 0.96068 0.044179 0.50751
B 0.0830125 0.151134 0.491997
B 0.215666 0.165445 0.497618
B 0.323317 0.1589 0.494388
B 0.451753 0.164717 0.496257
B 0.580877 0.167615 0.486638
B 0.71341 0.168508 0.495688
B 0.835768 0.16849 0.49547
B 0.967011 0.18228 0.508524
B 0.0756305 0.28564 0.49744
B 0.189034 0.288484 0.490148
B 0.329194 0.290344 0.495828
B 0.467665 0.295602 0.4968
B 0.590136 0.291755 0.488798
B 0.695824 0.289987 0.500145
B 0.83365 0.293125 0.511793
B 0.965481 0.280524 0.498528
B 0.0946704 0.423232 0.494065
B 0.218458 0.420152 0.498105
B 0.335068 0.412802 0.495057
B 0.454774 0.41881 0.498879
B 0.576942 0.411528 0.513891
B 0.698335 0.411015 0.505895
B 0.828374 0.408004 0.507287
B 0.952018 0.420587 0.505162
B 0.0760304 0.531759 0.495107
B 0.202442 0.53389 0.498937
B 0.338789 0.536915 0.493625
B 0.460712 0.540001 0.510912
B 0.720162 0.549602 0.51156
B 0.836831 0.53755 0.502563
B 0.962888 0.548545 0.487046
B 0.0727712 0.671058 0.505984
B 0.208446 0.654942 0.494281
B 0.336045 0.684057 0.500318
B 0.450244 0.666233 0.506522
B 0.568614 0.658963 0.505658
B 0.707937 0.676689 0.505496
B 0.838668 0.674549 0.494384
B 0.958077 0.667152 0.495912
B 0.0790423 0.777584 0.502234
B 0.213985 0.800719 0.494655
B 0.332369 0.790671 0.499865
B 0.467651 0.79983 0.494993
B 0.588732 0.790097 0.499027
B 0.71643 0.801385 0.511842
B 0.844949 0.795858 0.508155
B 0.959396 0.787183 0.497681
B 0.0880478 0.926376 0.510915
B 0.22347 0.924005 0.497643
B 0.334719 0.906546 0.493276
B 0.449459 0.907775 0.496887
B 0.581236 0.928036 0.503122
B 0.695299 0.905156 0.493945
B 0.843448 0.92929 0.513753
B 0.93815 0.905207 0.496019
