data_none

_audit_creation_method generated by ABACUS

_cell_length_a 20.0764
_cell_length_b 20.0764
_cell_length_c 30
_cell_angle_alpha 90
_cell_angle_beta 90
_cell_angle_gamma 120

loop_
_atom_site_label
_atom_site_fract_x
_atom_site_fract_y
_atom_site_fract_z
Ti 0.588748 0.543783 0.547181
N 0.525524 0.570884 0.519402
N 0.0429205 0.0723728 0.508563
N 0.182354 0.10316 0.497187
N 0.278297 0.0599762 0.497108
N 0.432083 0.0830877 0.495327
N 0.557353 0.101206 0.497957
N 0.65818 0.0938446 0.50754
N 0.749394 0.106909 0.495973
N 0.924426 0.0838264 0.498556
N 0.0399822 0.194814 0.498207
N 0.153317 0.214526 0.494926
N 0.292313 0.208131 0.493842
N 0.409913 0.197645 0.490903
N 0.53938 0.203791 0.495123
N 0.663654 0.214963 0.497308
N 0.785203 0.200167 0.501631
N 0.921109 0.211596 0.505034
N 0.0516586 0.325674 0.498759
N 0.139049 0.325278 0.497249
N 0.273761 0.324937 0.492657
N 0.409328 0.321818 0.492028
N 0.532121 0.324947 0.492555
N 0.662963 0.327412 0.503299
N 0.785554 0.320631 0.499827
N 0.913256 0.328179 0.500541
N 0.0497719 0.45995 0.497234
N 0.16145 0.433847 0.494774
N 0.301223 0.46229 0.495912
N 0.410589 0.445406 0.508582
N 0.538123 0.437357 0.514884
N 0.670302 0.462687 0.509922
N 0.790439 0.446768 0.50168
N 0.917945 0.467785 0.494641
N 0.0476466 0.594447 0.498825
N 0.14374 0.53561 0.498008
N 0.289356 0.581061 0.498105
N 0.41312 0.600065 0.496882
N 0.695112 0.594317 0.520094
N 0.806656 0.591748 0.502518
N 0.918627 0.577601 0.504468
N 0.041929 0.709854 0.494273
N 0.163473 0.716334 0.50195
N 0.290401 0.718577 0.492564
N 0.41151 0.713598 0.495821
N 0.524687 0.714952 0.498643
N 0.673311 0.714684 0.514706
N 0.782547 0.719169 0.503042
N 0.901055 0.702599 0.501641
N 0.0138254 0.769411 0.487665
N 0.177118 0.838019 0.49835
N 0.290765 0.837196 0.498474
N 0.433571 0.849678 0.504823
N 0.552956 0.832894 0.497851
N 0.676334 0.83437 0.504803
N 0.811001 0.841988 0.511287
N 0.925106 0.846559 0.495279
N 0.0414086 0.960899 0.499018
N 0.173843 0.971425 0.498949
N 0.305833 0.953799 0.505368
N 0.425799 0.967233 0.494169
N 0.525444 0.948806 0.499134
N 0.670945 0.963368 0.497987
N 0.792144 0.947794 0.503134
N 0.933665 0.975527 0.502211
B 0.0878386 0.0418772 0.49756
B 0.214692 0.0647986 0.498282
B 0.334885 0.03446 0.503668
B 0.474814 0.0432434 0.498272
B 0.576464 0.0354085 0.502111
B 0.689624 0.0392481 0.510016
B 0.840841 0.0261094 0.494076
B 0.966644 0.0574007 0.492736
B 0.0739676 0.152455 0.500259
B 0.214754 0.190312 0.497771
B 0.319308 0.153202 0.495306
B 0.458907 0.164981 0.498148
B 0.591418 0.176176 0.511734
B 0.714176 0.170316 0.511013
B 0.829836 0.169773 0.499896
B 0.971489 0.179238 0.506086
B 0.0718665 0.27604 0.496183
B 0.197768 0.298331 0.501255
B 0.330773 0.28701 0.495477
B 0.443462 0.279564 0.491919
B 0.58209 0.288416 0.500955
B 0.699735 0.285571 0.500131
B 0.826759 0.280098 0.487936
B 0.962603 0.302673 0.49773
B 0.0916827 0.41347 0.50089
B 0.208265 0.402728 0.499743
B 0.337187 0.412401 0.500675
B 0.455126 0.410984 0.507108
B 0.591694 0.412621 0.499787
B 0.706167 0.418094 0.499891
B 0.831567 0.401883 0.48922
B 0.96208 0.424962 0.493152
B 0.0828576 0.541998 0.504191
B 0.199269 0.523378 0.502197
B 0.335396 0.543344 0.494434
B 0.439284 0.533552 0.508426
B 0.718643 0.546404 0.505367
B 0.842784 0.546633 0.499351
B 0.957194 0.542717 0.501426
B 0.0817474 0.674118 0.49883
B 0.209408 0.686924 0.498094
B 0.31897 0.659002 0.495031
B 0.457778 0.681423 0.492612
B 0.566925 0.673261 0.50544
B 0.70877 0.667608 0.509471
B 0.827372 0.677652 0.500047
B 0.961504 0.670382 0.496484
B 0.0936486 0.795686 0.497731
B 0.211196 0.795678 0.505379
B 0.32862 0.790477 0.501306
B 0.479051 0.81004 0.497377
B 0.593136 0.794379 0.501966
B 0.713542 0.786691 0.500138
B 0.847147 0.801036 0.492196
B 0.95375 0.784242 0.497153
B 0.0975786 0.949466 0.501599
B 0.210389 0.917718 0.505308
B 0.345594 0.913583 0.498258
B 0.446833 0.916284 0.500897
B 0.578491 0.915336 0.505532
B 0.712666 0.91575 0.504184
B 0.855558 0.937971 0.496931
B 0.96071 0.922269 0.487708
